* Deltares, D-Flow FM Version 1.2.162.141476, Jul 20 2022, 20:29:53
* Source: https://svn.oss.deltares.nl/repos/delft3d/trunk/
* File creation date: 15:08:39, 14-08-2022
** INFO   : Command: "p:\d-hydro\dimrset\latest\x64\dflowfm\scripts\..\..\..\x64\dflowfm\bin\dflowfm-cli.exe"  --nodisplay --autostartstop "--partition:ndomains=2:icgsolver=6" cb_2d.mdu
